GS-1706937_lig
     RDKit          3D

  0  0  0  0  0  0  0  0  0  0999 V3000
M  V30 BEGIN CTAB
M  V30 COUNTS 89 95 0 0 1
M  V30 BEGIN ATOM
M  V30 1 C 14.251000 -4.403000 17.389000 0
M  V30 2 C 13.473000 -3.268000 16.948000 0
M  V30 3 C 15.547000 -2.054000 16.983000 0
M  V30 4 C 16.243000 -3.084000 17.494000 0
M  V30 5 C 15.553000 -4.339000 17.722000 0
M  V30 6 C 15.764000 -6.821000 18.200000 0
M  V30 7 C 13.530000 -0.972000 16.223000 0
M  V30 8 C 13.449000 0.184000 17.018000 0
M  V30 9 C 12.740000 1.290000 16.556000 0
M  V30 10 C 12.230000 0.265000 14.591000 0
M  V30 11 C 12.919000 -0.919000 14.953000 0
M  V30 12 C 12.125000 -1.143000 12.819000 0
M  V30 13 C 12.803000 -1.803000 13.834000 0
M  V30 14 C 11.876000 -1.639000 11.400000 0 CFG=2
M  V30 15 C 11.285000 -3.062000 11.394000 0
M  V30 16 C 13.603000 -2.619000 9.620000 0
M  V30 17 C 15.111000 -2.545000 9.315000 0
M  V30 18 C 15.583000 -1.120000 9.072000 0
M  V30 19 C 14.946000 -0.061000 9.602000 0
M  V30 20 C 13.606000 -0.126000 10.306000 0
M  V30 21 C 16.863000 -0.929000 8.371000 0
M  V30 22 C 18.073000 -0.937000 9.076000 0
M  V30 23 C 19.280000 -0.846000 8.384000 0
M  V30 24 C 19.295000 -0.750000 6.989000 0
M  V30 25 C 18.083000 -0.710000 6.301000 0
M  V30 26 C 16.868000 -0.816000 6.971000 0
M  V30 27 C 15.578000 -0.833000 6.163000 0
M  V30 28 C 20.604000 -0.675000 6.237000 0
M  V30 29 C 10.961000 1.129000 12.607000 0
M  V30 30 C 19.999000 -2.761000 4.945000 0
M  V30 31 C 20.621000 -3.284000 3.690000 0
M  V30 32 C 21.792000 -2.655000 3.455000 0
M  V30 33 C 22.105000 -1.606000 4.481000 0
M  V30 34 C 20.461000 -4.196000 2.644000 0
M  V30 35 C 23.576000 -2.920000 1.632000 0
M  V30 36 C 24.778000 -3.155000 2.570000 0
M  V30 37 C 23.538000 -1.487000 1.064000 0
M  V30 38 F 18.084000 -1.071000 10.423000 0
M  V30 39 N 14.198000 -2.117000 16.687000 0
M  V30 40 N 16.207000 -5.430000 18.196000 0
M  V30 41 N 12.106000 1.356000 15.360000 0
M  V30 42 N 11.753000 0.113000 13.298000 0
M  V30 43 N 13.291000 -1.589000 10.747000 0
M  V30 44 N 20.876000 -1.623000 5.302000 0
M  V30 45 N 21.476000 -4.150000 1.805000 0
M  V30 46 N 22.315000 -3.223000 2.318000 0
M  V30 47 O 12.244000 -3.388000 16.907000 0
M  V30 48 O 21.367000 0.268000 6.478000 0
M  V30 49 H 13.734000 -5.331000 17.507000 0
M  V30 50 H 16.006000 -1.096000 16.753000 0
M  V30 51 H 17.303000 -3.004000 17.694000 0
M  V30 52 H 16.472000 -7.442000 18.743000 0
M  V30 53 H 14.789000 -6.941000 18.669000 0
M  V30 54 H 15.711000 -7.211000 17.182000 0
M  V30 55 H 13.948000 0.213000 17.975000 0
M  V30 56 H 12.653000 2.183000 17.160000 0
M  V30 57 H 13.213000 -2.800000 13.760000 0
M  V30 58 H 11.234000 -1.008000 10.790000 0
M  V30 59 H 11.077000 -3.411000 10.380000 0
M  V30 60 H 11.939000 -3.793000 11.873000 0
M  V30 61 H 10.331000 -3.087000 11.921000 0
M  V30 62 H 13.363000 -3.635000 9.942000 0
M  V30 63 H 12.992000 -2.368000 8.757000 0
M  V30 64 H 15.347000 -3.166000 8.451000 0
M  V30 65 H 15.702000 -2.982000 10.123000 0
M  V30 66 H 15.386000 0.907000 9.430000 0
M  V30 67 H 12.816000 0.201000 9.628000 0
M  V30 68 H 13.597000 0.497000 11.203000 0
M  V30 69 H 20.202000 -0.909000 8.939000 0
M  V30 70 H 18.084000 -0.638000 5.226000 0
M  V30 71 H 15.755000 -0.997000 5.102000 0
M  V30 72 H 14.933000 -1.648000 6.492000 0
M  V30 73 H 15.030000 0.098000 6.302000 0
M  V30 74 H 10.924000 0.975000 11.533000 0
M  V30 75 H 9.950000 1.134000 13.015000 0
M  V30 76 H 11.397000 2.111000 12.800000 0
M  V30 77 H 20.014000 -3.507000 5.738000 0
M  V30 78 H 18.963000 -2.484000 4.768000 0
M  V30 79 H 22.284000 -0.625000 4.037000 0
M  V30 80 H 22.978000 -1.866000 5.084000 0
M  V30 81 H 19.626000 -4.872000 2.505000 0
M  V30 82 H 23.675000 -3.621000 0.795000 0
M  V30 83 H 24.793000 -4.177000 2.953000 0
M  V30 84 H 25.718000 -3.003000 2.042000 0
M  V30 85 H 24.770000 -2.479000 3.425000 0
M  V30 86 H 22.695000 -1.352000 0.387000 0
M  V30 87 H 23.462000 -0.741000 1.855000 0
M  V30 88 H 24.445000 -1.275000 0.498000 0
M  V30 89 H 17.229000 -5.381000 18.139000 0
M  V30 END ATOM
M  V30 BEGIN BOND
M  V30 1 1 2 1
M  V30 2 2 4 3
M  V30 3 2 5 1
M  V30 4 1 5 4
M  V30 5 2 8 7
M  V30 6 1 9 8
M  V30 7 1 11 7
M  V30 8 2 11 10
M  V30 9 1 13 11
M  V30 10 2 13 12
M  V30 11 1 14 12
M  V30 12 1 15 14
M  V30 13 1 17 16
M  V30 14 1 18 17
M  V30 15 2 19 18
M  V30 16 1 20 19
M  V30 17 1 21 18
M  V30 18 2 22 21
M  V30 19 1 23 22
M  V30 20 2 24 23
M  V30 21 1 25 24
M  V30 22 1 26 21
M  V30 23 2 26 25
M  V30 24 1 27 26
M  V30 25 1 28 24
M  V30 26 1 31 30
M  V30 27 2 32 31
M  V30 28 1 33 32
M  V30 29 1 34 31
M  V30 30 1 36 35
M  V30 31 1 37 35
M  V30 32 1 38 22
M  V30 33 1 39 2
M  V30 34 1 39 3
M  V30 35 1 39 7
M  V30 36 1 40 5
M  V30 37 1 40 6
M  V30 38 2 41 9
M  V30 39 1 41 10
M  V30 40 1 42 10
M  V30 41 1 42 12
M  V30 42 1 42 29
M  V30 43 1 43 14
M  V30 44 1 43 16
M  V30 45 1 43 20
M  V30 46 1 44 28
M  V30 47 1 44 30
M  V30 48 1 44 33
M  V30 49 2 45 34
M  V30 50 1 46 32
M  V30 51 1 46 35
M  V30 52 1 46 45
M  V30 53 2 47 2
M  V30 54 2 48 28
M  V30 55 1 49 1
M  V30 56 1 50 3
M  V30 57 1 51 4
M  V30 58 1 52 6
M  V30 59 1 53 6
M  V30 60 1 54 6
M  V30 61 1 55 8
M  V30 62 1 56 9
M  V30 63 1 57 13
M  V30 64 1 14 58 CFG=3
M  V30 65 1 59 15
M  V30 66 1 60 15
M  V30 67 1 61 15
M  V30 68 1 62 16
M  V30 69 1 63 16
M  V30 70 1 64 17
M  V30 71 1 65 17
M  V30 72 1 66 19
M  V30 73 1 67 20
M  V30 74 1 68 20
M  V30 75 1 69 23
M  V30 76 1 70 25
M  V30 77 1 71 27
M  V30 78 1 72 27
M  V30 79 1 73 27
M  V30 80 1 74 29
M  V30 81 1 75 29
M  V30 82 1 76 29
M  V30 83 1 77 30
M  V30 84 1 78 30
M  V30 85 1 79 33
M  V30 86 1 80 33
M  V30 87 1 81 34
M  V30 88 1 82 35
M  V30 89 1 83 36
M  V30 90 1 84 36
M  V30 91 1 85 36
M  V30 92 1 86 37
M  V30 93 1 87 37
M  V30 94 1 88 37
M  V30 95 1 89 40
M  V30 END BOND
M  V30 END CTAB
M  END
>  <b_m_subgroup_collapsed>  (1) 
0

>  <s_m_subgroup_title>  (1) 
ref_str

>  <s_m_subgroupid>  (1) 
ref_str

$$$$
GS-1669872_lig
     RDKit          3D

  0  0  0  0  0  0  0  0  0  0999 V3000
M  V30 BEGIN CTAB
M  V30 COUNTS 87 93 0 0 1
M  V30 BEGIN ATOM
M  V30 1 C 13.597000 -0.126000 10.749000 0
M  V30 2 C 13.688000 -2.535000 10.604000 0
M  V30 3 C 15.113000 -2.513000 9.985000 0
M  V30 4 C 15.471000 -1.141000 9.413000 0
M  V30 5 C 14.807000 -0.049000 9.839000 0
M  V30 6 C 16.698000 -0.963000 8.609000 0
M  V30 7 C 17.928000 -0.818000 9.262000 0
M  V30 8 C 19.105000 -0.683000 8.531000 0
M  V30 9 C 19.091000 -0.662000 7.135000 0
M  V30 10 C 17.864000 -0.803000 6.479000 0
M  V30 11 C 16.674000 -0.973000 7.202000 0
M  V30 12 C 15.375000 -1.182000 6.437000 0
M  V30 13 C 20.393000 -0.517000 6.373000 0
M  V30 14 C 12.286000 -1.442000 12.311000 0
M  V30 15 C 12.440000 -0.600000 13.579000 0
M  V30 16 C 13.220000 -1.102000 14.631000 0
M  V30 17 C 13.428000 -0.346000 15.787000 0
M  V30 18 C 12.864000 0.926000 15.840000 0
M  V30 19 C 11.876000 0.676000 13.742000 0
M  V30 20 C 10.966000 1.321000 12.709000 0
M  V30 21 C 14.696000 -2.103000 17.093000 0
M  V30 22 C 14.431000 -4.489000 17.335000 0
M  V30 23 C 15.793000 -4.577000 17.692000 0
M  V30 24 C 16.620000 -3.460000 17.766000 0
M  V30 25 C 16.038000 -2.224000 17.463000 0
M  V30 26 C 13.984000 -5.841000 17.339000 0
M  V30 27 C 13.870000 -3.236000 17.053000 0
M  V30 28 C 20.169000 -2.884000 5.614000 0
M  V30 29 C 20.037000 -3.296000 4.137000 0
M  V30 30 C 22.042000 -2.018000 3.571000 0
M  V30 31 C 22.184000 -1.545000 5.030000 0
M  V30 32 C 21.482000 -4.020000 2.223000 0
M  V30 33 C 20.455000 -4.902000 0.314000 0
M  V30 34 C 21.662000 -5.409000 -0.155000 0
M  V30 35 C 22.814000 -5.200000 0.600000 0
M  V30 36 C 22.750000 -4.492000 1.814000 0
M  V30 37 C 25.123000 -4.803000 2.237000 0
M  V30 38 F 17.994000 -0.812000 10.614000 0
M  V30 39 F 12.546000 -3.158000 16.760000 0
M  V30 40 N 13.506000 -1.382000 11.501000 0
M  V30 41 N 20.871000 -1.593000 5.699000 0
M  V30 42 N 12.099000 1.441000 14.841000 0
M  V30 43 N 14.193000 -0.813000 16.869000 0
M  V30 44 N 14.916000 -6.665000 17.736000 0
M  V30 45 N 16.026000 -5.919000 17.905000 0
M  V30 46 N 21.301000 -3.273000 3.386000 0
M  V30 47 N 20.357000 -4.213000 1.473000 0
M  V30 48 O 20.992000 0.566000 6.417000 0
M  V30 49 O 23.858000 -4.272000 2.620000 0
M  V30 50 H 12.716000 0.063000 10.133000 0
M  V30 51 H 13.678000 0.700000 11.454000 0
M  V30 52 H 13.596000 -3.462000 11.173000 0
M  V30 53 H 12.906000 -2.588000 9.844000 0
M  V30 54 H 15.241000 -3.297000 9.237000 0
M  V30 55 H 15.840000 -2.760000 10.760000 0
M  V30 56 H 15.127000 0.916000 9.492000 0
M  V30 57 H 20.035000 -0.626000 9.065000 0
M  V30 58 H 17.832000 -0.816000 5.397000 0
M  V30 59 H 15.538000 -1.281000 5.364000 0
M  V30 60 H 14.889000 -2.098000 6.775000 0
M  V30 61 H 14.684000 -0.359000 6.615000 0
M  V30 62 H 11.398000 -1.161000 11.743000 0
M  V30 63 H 12.106000 -2.470000 12.629000 0
M  V30 64 H 13.686000 -2.068000 14.524000 0
M  V30 65 H 12.998000 1.555000 16.706000 0
M  V30 66 H 10.576000 2.275000 13.065000 0
M  V30 67 H 11.504000 1.512000 11.784000 0
M  V30 68 H 10.111000 0.681000 12.488000 0
M  V30 69 H 17.663000 -3.542000 18.031000 0
M  V30 70 H 16.654000 -1.339000 17.491000 0
M  V30 71 H 13.019000 -6.195000 17.021000 0
M  V30 72 H 20.753000 -3.637000 6.137000 0
M  V30 73 H 19.177000 -2.898000 6.060000 0
M  V30 74 H 19.372000 -2.583000 3.647000 0
M  V30 75 H 19.572000 -4.281000 4.067000 0
M  V30 76 H 23.024000 -2.066000 3.102000 0
M  V30 77 H 21.464000 -1.263000 3.037000 0
M  V30 78 H 22.657000 -0.563000 5.050000 0
M  V30 79 H 22.863000 -2.229000 5.537000 0
M  V30 80 H 19.540000 -5.035000 -0.246000 0
M  V30 81 H 21.701000 -5.949000 -1.088000 0
M  V30 82 H 23.747000 -5.594000 0.229000 0
M  V30 83 H 25.846000 -4.652000 3.038000 0
M  V30 84 H 25.078000 -5.876000 2.047000 0
M  V30 85 H 25.505000 -4.304000 1.348000 0
M  V30 86 H 14.417000 -0.127000 17.576000 0
M  V30 87 H 16.939000 -6.344000 18.098000 0
M  V30 END ATOM
M  V30 BEGIN BOND
M  V30 1 1 3 2
M  V30 2 1 4 3
M  V30 3 1 5 1
M  V30 4 2 5 4
M  V30 5 1 6 4
M  V30 6 2 7 6
M  V30 7 1 8 7
M  V30 8 2 9 8
M  V30 9 1 10 9
M  V30 10 1 11 6
M  V30 11 2 11 10
M  V30 12 1 12 11
M  V30 13 1 13 9
M  V30 14 1 15 14
M  V30 15 2 16 15
M  V30 16 1 17 16
M  V30 17 2 18 17
M  V30 18 1 19 15
M  V30 19 1 20 19
M  V30 20 1 23 22
M  V30 21 2 24 23
M  V30 22 2 25 21
M  V30 23 1 25 24
M  V30 24 1 26 22
M  V30 25 1 27 21
M  V30 26 2 27 22
M  V30 27 1 29 28
M  V30 28 1 31 30
M  V30 29 2 34 33
M  V30 30 1 35 34
M  V30 31 1 36 32
M  V30 32 2 36 35
M  V30 33 1 38 7
M  V30 34 1 39 27
M  V30 35 1 40 1
M  V30 36 1 40 2
M  V30 37 1 40 14
M  V30 38 1 41 13
M  V30 39 1 41 28
M  V30 40 1 41 31
M  V30 41 1 42 18
M  V30 42 2 42 19
M  V30 43 1 43 17
M  V30 44 1 43 21
M  V30 45 2 44 26
M  V30 46 1 45 23
M  V30 47 1 45 44
M  V30 48 1 46 29
M  V30 49 1 46 30
M  V30 50 1 46 32
M  V30 51 2 47 32
M  V30 52 1 47 33
M  V30 53 2 48 13
M  V30 54 1 49 36
M  V30 55 1 49 37
M  V30 56 1 50 1
M  V30 57 1 51 1
M  V30 58 1 52 2
M  V30 59 1 53 2
M  V30 60 1 54 3
M  V30 61 1 55 3
M  V30 62 1 56 5
M  V30 63 1 57 8
M  V30 64 1 58 10
M  V30 65 1 59 12
M  V30 66 1 60 12
M  V30 67 1 61 12
M  V30 68 1 62 14
M  V30 69 1 63 14
M  V30 70 1 64 16
M  V30 71 1 65 18
M  V30 72 1 66 20
M  V30 73 1 67 20
M  V30 74 1 68 20
M  V30 75 1 69 24
M  V30 76 1 70 25
M  V30 77 1 71 26
M  V30 78 1 72 28
M  V30 79 1 73 28
M  V30 80 1 74 29
M  V30 81 1 75 29
M  V30 82 1 76 30
M  V30 83 1 77 30
M  V30 84 1 78 31
M  V30 85 1 79 31
M  V30 86 1 80 33
M  V30 87 1 81 34
M  V30 88 1 82 35
M  V30 89 1 83 37
M  V30 90 1 84 37
M  V30 91 1 85 37
M  V30 92 1 86 43
M  V30 93 1 87 45
M  V30 END BOND
M  V30 END CTAB
M  END
>  <b_m_subgroup_collapsed>  (2) 
0

>  <s_m_subgroup_title>  (2) 
ref_str

>  <s_m_subgroupid>  (2) 
ref_str

$$$$
GS-1668418_lig
     RDKit          3D

  0  0  0  0  0  0  0  0  0  0999 V3000
M  V30 BEGIN CTAB
M  V30 COUNTS 75 81 0 0 1
M  V30 BEGIN ATOM
M  V30 1 C 13.742000 -0.120000 10.689000 0
M  V30 2 C 13.859000 -2.526000 10.644000 0
M  V30 3 C 15.285000 -2.522000 10.030000 0
M  V30 4 C 15.613000 -1.178000 9.375000 0
M  V30 5 C 14.936000 -0.072000 9.748000 0
M  V30 6 C 16.828000 -1.048000 8.546000 0
M  V30 7 C 18.072000 -0.903000 9.176000 0
M  V30 8 C 19.241000 -0.831000 8.427000 0
M  V30 9 C 19.213000 -0.863000 7.028000 0
M  V30 10 C 17.963000 -0.996000 6.398000 0
M  V30 11 C 16.785000 -1.107000 7.138000 0
M  V30 12 C 15.463000 -1.278000 6.397000 0
M  V30 13 C 20.498000 -0.693000 6.253000 0
M  V30 14 C 12.456000 -1.405000 12.313000 0
M  V30 15 C 12.596000 -0.608000 13.611000 0
M  V30 16 C 13.360000 -1.133000 14.665000 0
M  V30 17 C 13.516000 -0.414000 15.856000 0
M  V30 18 C 12.903000 0.835000 15.943000 0
M  V30 19 C 11.992000 0.645000 13.805000 0
M  V30 20 C 11.112000 1.306000 12.755000 0
M  V30 21 C 14.701000 -2.202000 17.207000 0
M  V30 22 C 14.302000 -4.561000 17.548000 0
M  V30 23 C 15.663000 -4.713000 17.888000 0
M  V30 24 C 16.551000 -3.638000 17.916000 0
M  V30 25 C 16.032000 -2.385000 17.584000 0
M  V30 26 C 13.767000 -5.883000 17.664000 0
M  V30 27 C 13.813000 -3.293000 17.201000 0
M  V30 28 C 20.137000 -2.828000 4.979000 0
M  V30 29 C 20.948000 -3.397000 3.844000 0
M  V30 30 C 22.120000 -2.675000 3.684000 0
M  V30 31 C 22.191000 -1.542000 4.667000 0
M  V30 32 C 20.703000 -4.469000 2.983000 0
M  V30 33 C 21.656000 -4.792000 2.011000 0
M  V30 34 C 22.823000 -4.026000 1.937000 0
M  V30 35 F 18.140000 -0.821000 10.524000 0
M  V30 36 F 12.499000 -3.148000 16.897000 0
M  V30 37 N 13.677000 -1.342000 11.501000 0
M  V30 38 N 20.897000 -1.628000 5.358000 0
M  V30 39 N 12.150000 1.366000 14.944000 0
M  V30 40 N 14.272000 -0.895000 16.937000 0
M  V30 41 N 14.669000 -6.746000 18.066000 0
M  V30 42 N 15.831000 -6.057000 18.134000 0
M  V30 43 N 23.058000 -2.964000 2.751000 0
M  V30 44 O 21.179000 0.319000 6.473000 0
M  V30 45 H 12.847000 0.039000 10.080000 0
M  V30 46 H 13.826000 0.734000 11.359000 0
M  V30 47 H 13.771000 -3.430000 11.246000 0
M  V30 48 H 13.082000 -2.612000 9.879000 0
M  V30 49 H 15.427000 -3.348000 9.332000 0
M  V30 50 H 16.010000 -2.708000 10.824000 0
M  V30 51 H 15.230000 0.874000 9.332000 0
M  V30 52 H 20.185000 -0.773000 8.945000 0
M  V30 53 H 17.903000 -1.011000 5.321000 0
M  V30 54 H 15.593000 -1.324000 5.315000 0
M  V30 55 H 14.978000 -2.201000 6.716000 0
M  V30 56 H 14.790000 -0.454000 6.631000 0
M  V30 57 H 11.564000 -1.121000 11.751000 0
M  V30 58 H 12.271000 -2.439000 12.611000 0
M  V30 59 H 13.849000 -2.088000 14.546000 0
M  V30 60 H 12.985000 1.427000 16.839000 0
M  V30 61 H 10.735000 2.272000 13.099000 0
M  V30 62 H 11.664000 1.471000 11.832000 0
M  V30 63 H 10.252000 0.677000 12.532000 0
M  V30 64 H 17.589000 -3.776000 18.176000 0
M  V30 65 H 16.692000 -1.526000 17.599000 0
M  V30 66 H 12.756000 -6.172000 17.421000 0
M  V30 67 H 20.044000 -3.516000 5.821000 0
M  V30 68 H 19.131000 -2.582000 4.639000 0
M  V30 69 H 22.328000 -0.581000 4.171000 0
M  V30 70 H 23.029000 -1.659000 5.357000 0
M  V30 71 H 19.798000 -5.055000 3.056000 0
M  V30 72 H 21.495000 -5.618000 1.333000 0
M  V30 73 H 23.591000 -4.257000 1.212000 0
M  V30 74 H 14.503000 -0.221000 17.658000 0
M  V30 75 H 16.735000 -6.516000 18.283000 0
M  V30 END ATOM
M  V30 BEGIN BOND
M  V30 1 1 3 2
M  V30 2 1 4 3
M  V30 3 1 5 1
M  V30 4 2 5 4
M  V30 5 1 6 4
M  V30 6 2 7 6
M  V30 7 1 8 7
M  V30 8 2 9 8
M  V30 9 1 10 9
M  V30 10 1 11 6
M  V30 11 2 11 10
M  V30 12 1 12 11
M  V30 13 1 13 9
M  V30 14 1 15 14
M  V30 15 2 16 15
M  V30 16 1 17 16
M  V30 17 2 18 17
M  V30 18 1 19 15
M  V30 19 1 20 19
M  V30 20 1 23 22
M  V30 21 2 24 23
M  V30 22 2 25 21
M  V30 23 1 25 24
M  V30 24 1 26 22
M  V30 25 1 27 21
M  V30 26 2 27 22
M  V30 27 1 29 28
M  V30 28 2 30 29
M  V30 29 1 31 30
M  V30 30 1 32 29
M  V30 31 2 33 32
M  V30 32 1 34 33
M  V30 33 1 35 7
M  V30 34 1 36 27
M  V30 35 1 37 1
M  V30 36 1 37 2
M  V30 37 1 37 14
M  V30 38 1 38 13
M  V30 39 1 38 28
M  V30 40 1 38 31
M  V30 41 1 39 18
M  V30 42 2 39 19
M  V30 43 1 40 17
M  V30 44 1 40 21
M  V30 45 2 41 26
M  V30 46 1 42 23
M  V30 47 1 42 41
M  V30 48 1 43 30
M  V30 49 2 43 34
M  V30 50 2 44 13
M  V30 51 1 45 1
M  V30 52 1 46 1
M  V30 53 1 47 2
M  V30 54 1 48 2
M  V30 55 1 49 3
M  V30 56 1 50 3
M  V30 57 1 51 5
M  V30 58 1 52 8
M  V30 59 1 53 10
M  V30 60 1 54 12
M  V30 61 1 55 12
M  V30 62 1 56 12
M  V30 63 1 57 14
M  V30 64 1 58 14
M  V30 65 1 59 16
M  V30 66 1 60 18
M  V30 67 1 61 20
M  V30 68 1 62 20
M  V30 69 1 63 20
M  V30 70 1 64 24
M  V30 71 1 65 25
M  V30 72 1 66 26
M  V30 73 1 67 28
M  V30 74 1 68 28
M  V30 75 1 69 31
M  V30 76 1 70 31
M  V30 77 1 71 32
M  V30 78 1 72 33
M  V30 79 1 73 34
M  V30 80 1 74 40
M  V30 81 1 75 42
M  V30 END BOND
M  V30 END CTAB
M  END
>  <b_m_subgroup_collapsed>  (3) 
0

>  <s_m_subgroup_title>  (3) 
ref_str

>  <s_m_subgroupid>  (3) 
ref_str

$$$$
GS-1686782_lig
     RDKit          3D

  0  0  0  0  0  0  0  0  0  0999 V3000
M  V30 BEGIN CTAB
M  V30 COUNTS 85 90 0 0 1
M  V30 BEGIN ATOM
M  V30 1 C 13.749000 0.032000 10.895000 0
M  V30 2 C 14.730000 -2.240000 11.709000 0
M  V30 3 C 15.529000 -2.379000 10.396000 0
M  V30 4 C 15.821000 -1.009000 9.814000 0
M  V30 5 C 14.969000 0.028000 9.980000 0
M  V30 6 C 16.944000 -0.901000 8.880000 0
M  V30 7 C 18.233000 -0.918000 9.426000 0
M  V30 8 C 19.352000 -0.850000 8.598000 0
M  V30 9 C 19.219000 -0.765000 7.215000 0
M  V30 10 C 17.927000 -0.766000 6.664000 0
M  V30 11 C 16.795000 -0.830000 7.486000 0
M  V30 12 C 15.421000 -0.852000 6.845000 0
M  V30 13 C 20.454000 -0.627000 6.363000 0
M  V30 14 C 12.333000 -1.428000 12.452000 0 CFG=2
M  V30 15 C 12.599000 -0.603000 13.737000 0
M  V30 16 C 13.496000 -1.054000 14.727000 0
M  V30 17 C 13.737000 -0.300000 15.883000 0
M  V30 18 C 13.070000 0.901000 16.044000 0
M  V30 19 C 11.944000 0.625000 14.018000 0
M  V30 20 C 10.961000 1.299000 13.065000 0
M  V30 21 C 11.955000 -2.896000 12.709000 0
M  V30 22 C 14.902000 -2.023000 17.273000 0
M  V30 23 C 16.167000 -2.328000 17.763000 0
M  V30 24 C 16.462000 -3.640000 18.124000 0
M  V30 25 C 15.484000 -4.628000 18.016000 0
M  V30 26 C 14.200000 -4.300000 17.574000 0
M  V30 27 C 13.915000 -2.996000 17.195000 0
M  V30 28 C 15.136000 -7.031000 18.479000 0
M  V30 29 C 21.947000 -1.504000 4.618000 0
M  V30 30 C 21.679000 -2.544000 3.570000 0
M  V30 31 C 20.557000 -3.235000 3.880000 0
M  V30 32 C 19.920000 -2.771000 5.159000 0
M  V30 33 C 22.139000 -3.087000 2.371000 0
M  V30 34 C 19.271000 -5.074000 2.686000 0
M  V30 35 C 15.430000 -9.419000 19.003000 0
M  V30 36 F 18.404000 -1.048000 10.764000 0
M  V30 37 N 13.454000 -1.409000 11.384000 0
M  V30 38 N 20.747000 -1.590000 5.469000 0
M  V30 39 N 12.159000 1.352000 15.150000 0
M  V30 40 N 14.609000 -0.720000 16.885000 0
M  V30 41 N 15.890000 -5.929000 18.331000 0
M  V30 42 N 15.908000 -8.048000 18.877000 0
M  V30 43 N 21.331000 -4.032000 1.934000 0
M  V30 44 N 20.365000 -4.136000 2.865000 0
M  V30 45 O 21.167000 0.374000 6.514000 0
M  V30 46 O 13.922000 -7.106000 18.316000 0
M  V30 47 H 12.852000 0.427000 10.406000 0
M  V30 48 H 13.965000 0.654000 11.761000 0
M  V30 49 H 15.314000 -1.715000 12.484000 0
M  V30 50 H 14.482000 -3.239000 12.086000 0
M  V30 51 H 14.961000 -2.966000 9.660000 0
M  V30 52 H 16.448000 -2.938000 10.568000 0
M  V30 53 H 15.206000 0.949000 9.455000 0
M  V30 54 H 20.334000 -0.904000 9.050000 0
M  V30 55 H 17.814000 -0.728000 5.592000 0
M  V30 56 H 15.455000 -0.842000 5.757000 0
M  V30 57 H 14.882000 -1.747000 7.150000 0
M  V30 58 H 14.842000 0.008000 7.170000 0
M  V30 59 H 11.509000 -0.970000 11.906000 0
M  V30 60 H 14.041000 -1.970000 14.588000 0
M  V30 61 H 13.245000 1.501000 16.921000 0
M  V30 62 H 10.607000 2.251000 13.469000 0
M  V30 63 H 11.456000 1.528000 12.124000 0
M  V30 64 H 10.089000 0.680000 12.873000 0
M  V30 65 H 11.928000 -3.487000 11.789000 0
M  V30 66 H 12.663000 -3.412000 13.360000 0
M  V30 67 H 10.980000 -2.987000 13.160000 0
M  V30 68 H 16.944000 -1.576000 17.817000 0
M  V30 69 H 17.459000 -3.889000 18.462000 0
M  V30 70 H 13.431000 -5.042000 17.440000 0
M  V30 71 H 12.947000 -2.749000 16.792000 0
M  V30 72 H 22.074000 -0.508000 4.184000 0
M  V30 73 H 22.852000 -1.707000 5.201000 0
M  V30 74 H 19.990000 -3.514000 5.956000 0
M  V30 75 H 18.867000 -2.537000 5.007000 0
M  V30 76 H 23.022000 -2.780000 1.836000 0
M  V30 77 H 19.395000 -5.622000 1.753000 0
M  V30 78 H 19.256000 -5.778000 3.514000 0
M  V30 79 H 18.330000 -4.525000 2.651000 0
M  V30 80 H 15.982000 -9.951000 19.772000 0
M  V30 81 H 14.372000 -9.464000 19.257000 0
M  V30 82 H 15.576000 -9.917000 18.047000 0
M  V30 83 H 15.282000 -0.031000 17.232000 0
M  V30 84 H 16.890000 -6.056000 18.443000 0
M  V30 85 H 16.906000 -7.881000 18.951000 0
M  V30 END ATOM
M  V30 BEGIN BOND
M  V30 1 1 3 2
M  V30 2 1 4 3
M  V30 3 1 5 1
M  V30 4 2 5 4
M  V30 5 1 6 4
M  V30 6 2 7 6
M  V30 7 1 8 7
M  V30 8 2 9 8
M  V30 9 1 10 9
M  V30 10 1 11 6
M  V30 11 2 11 10
M  V30 12 1 12 11
M  V30 13 1 13 9
M  V30 14 1 15 14
M  V30 15 2 16 15
M  V30 16 1 17 16
M  V30 17 2 18 17
M  V30 18 1 19 15
M  V30 19 1 20 19
M  V30 20 1 21 14
M  V30 21 2 23 22
M  V30 22 1 24 23
M  V30 23 2 25 24
M  V30 24 1 26 25
M  V30 25 1 27 22
M  V30 26 2 27 26
M  V30 27 1 30 29
M  V30 28 2 31 30
M  V30 29 1 32 31
M  V30 30 1 33 30
M  V30 31 1 36 7
M  V30 32 1 37 1
M  V30 33 1 37 2
M  V30 34 1 37 14
M  V30 35 1 38 13
M  V30 36 1 38 29
M  V30 37 1 38 32
M  V30 38 1 39 18
M  V30 39 2 39 19
M  V30 40 1 40 17
M  V30 41 1 40 22
M  V30 42 1 41 25
M  V30 43 1 41 28
M  V30 44 1 42 28
M  V30 45 1 42 35
M  V30 46 2 43 33
M  V30 47 1 44 31
M  V30 48 1 44 34
M  V30 49 1 44 43
M  V30 50 2 45 13
M  V30 51 2 46 28
M  V30 52 1 47 1
M  V30 53 1 48 1
M  V30 54 1 49 2
M  V30 55 1 50 2
M  V30 56 1 51 3
M  V30 57 1 52 3
M  V30 58 1 53 5
M  V30 59 1 54 8
M  V30 60 1 55 10
M  V30 61 1 56 12
M  V30 62 1 57 12
M  V30 63 1 58 12
M  V30 64 1 14 59 CFG=3
M  V30 65 1 60 16
M  V30 66 1 61 18
M  V30 67 1 62 20
M  V30 68 1 63 20
M  V30 69 1 64 20
M  V30 70 1 65 21
M  V30 71 1 66 21
M  V30 72 1 67 21
M  V30 73 1 68 23
M  V30 74 1 69 24
M  V30 75 1 70 26
M  V30 76 1 71 27
M  V30 77 1 72 29
M  V30 78 1 73 29
M  V30 79 1 74 32
M  V30 80 1 75 32
M  V30 81 1 76 33
M  V30 82 1 77 34
M  V30 83 1 78 34
M  V30 84 1 79 34
M  V30 85 1 80 35
M  V30 86 1 81 35
M  V30 87 1 82 35
M  V30 88 1 83 40
M  V30 89 1 84 41
M  V30 90 1 85 42
M  V30 END BOND
M  V30 END CTAB
M  END
>  <b_m_subgroup_collapsed>  (4) 
0

>  <s_m_subgroup_title>  (4) 
ref_str

>  <s_m_subgroupid>  (4) 
ref_str

$$$$
Bicyclic_LEO177187A_lig
     RDKit          3D

  0  0  0  0  0  0  0  0  0  0999 V3000
M  V30 BEGIN CTAB
M  V30 COUNTS 72 76 0 0 1
M  V30 BEGIN ATOM
M  V30 1 N 11.983000 0.221000 12.843000 0
M  V30 2 C 12.428000 0.251000 14.155000 0
M  V30 3 N 12.416000 1.307000 14.976000 0
M  V30 4 C 12.963000 1.091000 16.197000 0
M  V30 5 C 13.501000 -0.122000 16.626000 0
M  V30 6 C 13.483000 -1.229000 15.768000 0
M  V30 7 C 12.935000 -1.037000 14.480000 0
M  V30 8 C 12.755000 -1.839000 13.315000 0
M  V30 9 C 12.272000 -1.026000 12.304000 0
M  V30 10 C 12.103000 -1.334000 10.829000 0 CFG=1
M  V30 11 N 13.501000 -1.116000 10.207000 0
M  V30 12 C 13.425000 -0.530000 8.782000 0
M  V30 13 C 14.854000 -0.213000 8.307000 0
M  V30 14 C 15.782000 -1.444000 8.383000 0
M  V30 15 C 15.766000 -2.089000 9.790000 0
M  V30 16 C 14.339000 -2.415000 10.244000 0
M  V30 17 C 17.180000 -1.129000 7.843000 0
M  V30 18 C 18.254000 -0.826000 8.689000 0
M  V30 19 C 19.516000 -0.593000 8.155000 0
M  V30 20 C 19.723000 -0.640000 6.775000 0
M  V30 21 C 18.643000 -0.916000 5.930000 0
M  V30 22 C 17.382000 -1.158000 6.461000 0
M  V30 23 C 21.091000 -0.346000 6.213000 0
M  V30 24 O 21.667000 0.679000 6.585000 0
M  V30 25 N 21.634000 -1.195000 5.304000 0
M  V30 26 C 21.109000 -2.517000 4.954000 0
M  V30 27 C 22.872000 -0.871000 4.596000 0
M  V30 28 N 14.031000 -2.463000 16.181000 0
M  V30 29 C 15.365000 -2.508000 16.542000 0
M  V30 30 C 16.002000 -3.625000 16.944000 0
M  V30 31 C 15.244000 -4.865000 16.963000 0
M  V30 32 C 13.936000 -4.815000 16.617000 0
M  V30 33 C 13.229000 -3.586000 16.262000 0
M  V30 34 O 12.009000 -3.599000 16.092000 0
M  V30 35 N 15.839000 -6.052000 17.274000 0
M  V30 36 C 11.478000 1.376000 12.104000 0
M  V30 37 H 12.955000 1.944000 16.855000 0
M  V30 38 H 13.918000 -0.202000 17.619000 0
M  V30 39 H 13.032000 -2.876000 13.197000 0
M  V30 40 C 11.696789 -2.788178 10.525752 0
M  V30 41 H 12.813000 0.372000 8.834000 0
M  V30 42 H 12.927000 -1.272000 8.155000 0
M  V30 43 H 13.852000 -3.137000 9.586000 0
M  V30 44 H 14.325000 -2.795000 11.264000 0
M  V30 45 H 18.136000 -0.780000 9.760000 0
M  V30 46 H 20.338000 -0.393000 8.823000 0
M  V30 47 H 18.774000 -0.952000 4.859000 0
M  V30 48 H 16.564000 -1.382000 5.792000 0
M  V30 49 H 21.899000 -3.255000 5.055000 0
M  V30 50 H 20.291000 -2.850000 5.590000 0
M  V30 51 H 20.768000 -2.528000 3.919000 0
M  V30 52 H 22.715000 -0.930000 3.519000 0
M  V30 53 H 23.249000 0.129000 4.816000 0
M  V30 54 H 23.653000 -1.583000 4.863000 0
M  V30 55 H 15.864000 -1.549000 16.479000 0
M  V30 56 H 17.042000 -3.606000 17.233000 0
M  V30 57 H 13.359000 -5.728000 16.603000 0
M  V30 58 C 15.052990 -7.352981 17.267977 0
M  V30 59 H 16.828000 -6.101000 17.488000 0
M  V30 60 H 12.298000 1.846000 11.562000 0
M  V30 61 H 10.701000 1.074000 11.405000 0
M  V30 62 H 11.039000 2.099000 12.792000 0
M  V30 63 H 15.711267 -8.177067 17.543033 0
M  V30 64 H 14.234916 -7.287152 17.985278 0
M  V30 65 H 14.648336 -7.528992 16.271295 0
M  V30 66 H 16.693029 -2.254115 10.318918 0
M  V30 67 H 15.847942 -3.077396 9.337829 0
M  V30 68 H 15.237615 0.731200 7.949613 0
M  V30 69 H 11.384920 -0.645329 10.383812 0
M  V30 70 H 11.597903 -2.921218 9.448431 0
M  V30 71 H 12.460578 -3.466251 10.906468 0
M  V30 72 H 10.743966 -3.007783 11.007417 0
M  V30 END ATOM
M  V30 BEGIN BOND
M  V30 1 1 2 1
M  V30 2 2 3 2
M  V30 3 1 4 3
M  V30 4 2 5 4
M  V30 5 1 6 5
M  V30 6 1 7 2
M  V30 7 2 7 6
M  V30 8 1 8 7
M  V30 9 1 9 1
M  V30 10 2 9 8
M  V30 11 1 10 9
M  V30 12 1 11 10
M  V30 13 1 12 11
M  V30 14 1 13 12
M  V30 15 2 14 13
M  V30 16 1 15 14
M  V30 17 1 16 11
M  V30 18 1 16 15
M  V30 19 1 17 14
M  V30 20 2 18 17
M  V30 21 1 19 18
M  V30 22 2 20 19
M  V30 23 1 21 20
M  V30 24 1 22 17
M  V30 25 2 22 21
M  V30 26 1 23 20
M  V30 27 2 24 23
M  V30 28 1 25 23
M  V30 29 1 26 25
M  V30 30 1 27 25
M  V30 31 1 28 6
M  V30 32 1 29 28
M  V30 33 2 30 29
M  V30 34 1 31 30
M  V30 35 2 32 31
M  V30 36 1 33 28
M  V30 37 1 33 32
M  V30 38 2 34 33
M  V30 39 1 35 31
M  V30 40 1 36 1
M  V30 41 1 37 4
M  V30 42 1 38 5
M  V30 43 1 39 8
M  V30 44 1 40 10
M  V30 45 1 41 12
M  V30 46 1 42 12
M  V30 47 1 43 16
M  V30 48 1 44 16
M  V30 49 1 45 18
M  V30 50 1 46 19
M  V30 51 1 47 21
M  V30 52 1 48 22
M  V30 53 1 49 26
M  V30 54 1 50 26
M  V30 55 1 51 26
M  V30 56 1 52 27
M  V30 57 1 53 27
M  V30 58 1 54 27
M  V30 59 1 55 29
M  V30 60 1 56 30
M  V30 61 1 57 32
M  V30 62 1 58 35
M  V30 63 1 59 35
M  V30 64 1 60 36
M  V30 65 1 61 36
M  V30 66 1 62 36
M  V30 67 1 63 58
M  V30 68 1 64 58
M  V30 69 1 65 58
M  V30 70 1 66 15
M  V30 71 1 67 15
M  V30 72 1 68 13
M  V30 73 1 10 69 CFG=3
M  V30 74 1 70 40
M  V30 75 1 71 40
M  V30 76 1 72 40
M  V30 END BOND
M  V30 END CTAB
M  END
>  <b_m_subgroup_collapsed>  (5) 
0

>  <s_m_subgroup_title>  (5) 
ref_str

>  <s_m_subgroupid>  (5) 
ref_str

$$$$
