1668418_ligand
     RDKit          3D

  0  0  0  0  0  0  0  0  0  0999 V3000
M  V30 BEGIN CTAB
M  V30 COUNTS 75 81 0 0 1
M  V30 BEGIN ATOM
M  V30 1 C 13.742000 -0.120000 10.689000 0
M  V30 2 C 13.859000 -2.526000 10.644000 0
M  V30 3 C 15.285000 -2.522000 10.030000 0
M  V30 4 C 15.613000 -1.178000 9.375000 0
M  V30 5 C 14.936000 -0.072000 9.748000 0
M  V30 6 C 16.828000 -1.048000 8.546000 0
M  V30 7 C 18.072000 -0.903000 9.176000 0
M  V30 8 C 19.241000 -0.831000 8.427000 0
M  V30 9 C 19.213000 -0.863000 7.028000 0
M  V30 10 C 17.963000 -0.996000 6.398000 0
M  V30 11 C 16.785000 -1.107000 7.138000 0
M  V30 12 C 15.463000 -1.278000 6.397000 0
M  V30 13 C 20.498000 -0.693000 6.253000 0
M  V30 14 C 12.456000 -1.405000 12.313000 0
M  V30 15 C 12.596000 -0.608000 13.611000 0
M  V30 16 C 13.360000 -1.133000 14.665000 0
M  V30 17 C 13.516000 -0.414000 15.856000 0
M  V30 18 C 12.903000 0.835000 15.943000 0
M  V30 19 C 11.992000 0.645000 13.805000 0
M  V30 20 C 11.112000 1.306000 12.755000 0
M  V30 21 C 14.701000 -2.202000 17.207000 0
M  V30 22 C 14.302000 -4.561000 17.548000 0
M  V30 23 C 15.663000 -4.713000 17.888000 0
M  V30 24 C 16.551000 -3.638000 17.916000 0
M  V30 25 C 16.032000 -2.385000 17.584000 0
M  V30 26 C 13.767000 -5.883000 17.664000 0
M  V30 27 C 13.813000 -3.293000 17.201000 0
M  V30 28 C 20.137000 -2.828000 4.979000 0
M  V30 29 C 20.948000 -3.397000 3.844000 0
M  V30 30 C 22.120000 -2.675000 3.684000 0
M  V30 31 C 22.191000 -1.542000 4.667000 0
M  V30 32 C 20.703000 -4.469000 2.983000 0
M  V30 33 C 21.656000 -4.792000 2.011000 0
M  V30 34 C 22.823000 -4.026000 1.937000 0
M  V30 35 F 18.140000 -0.821000 10.524000 0
M  V30 36 F 12.499000 -3.148000 16.897000 0
M  V30 37 N 13.677000 -1.342000 11.501000 0
M  V30 38 N 20.897000 -1.628000 5.358000 0
M  V30 39 N 12.150000 1.366000 14.944000 0
M  V30 40 N 14.272000 -0.895000 16.937000 0
M  V30 41 N 14.669000 -6.746000 18.066000 0
M  V30 42 N 15.831000 -6.057000 18.134000 0
M  V30 43 N 23.058000 -2.964000 2.751000 0
M  V30 44 O 21.179000 0.319000 6.473000 0
M  V30 45 H 12.847000 0.039000 10.080000 0
M  V30 46 H 13.826000 0.734000 11.359000 0
M  V30 47 H 13.771000 -3.430000 11.246000 0
M  V30 48 H 13.082000 -2.612000 9.879000 0
M  V30 49 H 15.427000 -3.348000 9.332000 0
M  V30 50 H 16.010000 -2.708000 10.824000 0
M  V30 51 H 15.230000 0.874000 9.332000 0
M  V30 52 H 20.185000 -0.773000 8.945000 0
M  V30 53 H 17.903000 -1.011000 5.321000 0
M  V30 54 H 15.593000 -1.324000 5.315000 0
M  V30 55 H 14.978000 -2.201000 6.716000 0
M  V30 56 H 14.790000 -0.454000 6.631000 0
M  V30 57 H 11.564000 -1.121000 11.751000 0
M  V30 58 H 12.271000 -2.439000 12.611000 0
M  V30 59 H 13.849000 -2.088000 14.546000 0
M  V30 60 H 12.985000 1.427000 16.839000 0
M  V30 61 H 10.735000 2.272000 13.099000 0
M  V30 62 H 11.664000 1.471000 11.832000 0
M  V30 63 H 10.252000 0.677000 12.532000 0
M  V30 64 H 17.589000 -3.776000 18.176000 0
M  V30 65 H 16.692000 -1.526000 17.599000 0
M  V30 66 H 12.756000 -6.172000 17.421000 0
M  V30 67 H 20.044000 -3.516000 5.821000 0
M  V30 68 H 19.131000 -2.582000 4.639000 0
M  V30 69 H 22.328000 -0.581000 4.171000 0
M  V30 70 H 23.029000 -1.659000 5.357000 0
M  V30 71 H 19.798000 -5.055000 3.056000 0
M  V30 72 H 21.495000 -5.618000 1.333000 0
M  V30 73 H 23.591000 -4.257000 1.212000 0
M  V30 74 H 14.503000 -0.221000 17.658000 0
M  V30 75 H 16.735000 -6.516000 18.283000 0
M  V30 END ATOM
M  V30 BEGIN BOND
M  V30 1 1 3 2
M  V30 2 1 4 3
M  V30 3 1 5 1
M  V30 4 2 5 4
M  V30 5 1 6 4
M  V30 6 2 7 6
M  V30 7 1 8 7
M  V30 8 2 9 8
M  V30 9 1 10 9
M  V30 10 1 11 6
M  V30 11 2 11 10
M  V30 12 1 12 11
M  V30 13 1 13 9
M  V30 14 1 15 14
M  V30 15 2 16 15
M  V30 16 1 17 16
M  V30 17 2 18 17
M  V30 18 1 19 15
M  V30 19 1 20 19
M  V30 20 1 23 22
M  V30 21 2 24 23
M  V30 22 2 25 21
M  V30 23 1 25 24
M  V30 24 1 26 22
M  V30 25 1 27 21
M  V30 26 2 27 22
M  V30 27 1 29 28
M  V30 28 2 30 29
M  V30 29 1 31 30
M  V30 30 1 32 29
M  V30 31 2 33 32
M  V30 32 1 34 33
M  V30 33 1 35 7
M  V30 34 1 36 27
M  V30 35 1 37 1
M  V30 36 1 37 2
M  V30 37 1 37 14
M  V30 38 1 38 13
M  V30 39 1 38 28
M  V30 40 1 38 31
M  V30 41 1 39 18
M  V30 42 2 39 19
M  V30 43 1 40 17
M  V30 44 1 40 21
M  V30 45 2 41 26
M  V30 46 1 42 23
M  V30 47 1 42 41
M  V30 48 1 43 30
M  V30 49 2 43 34
M  V30 50 2 44 13
M  V30 51 1 45 1
M  V30 52 1 46 1
M  V30 53 1 47 2
M  V30 54 1 48 2
M  V30 55 1 49 3
M  V30 56 1 50 3
M  V30 57 1 51 5
M  V30 58 1 52 8
M  V30 59 1 53 10
M  V30 60 1 54 12
M  V30 61 1 55 12
M  V30 62 1 56 12
M  V30 63 1 57 14
M  V30 64 1 58 14
M  V30 65 1 59 16
M  V30 66 1 60 18
M  V30 67 1 61 20
M  V30 68 1 62 20
M  V30 69 1 63 20
M  V30 70 1 64 24
M  V30 71 1 65 25
M  V30 72 1 66 26
M  V30 73 1 67 28
M  V30 74 1 68 28
M  V30 75 1 69 31
M  V30 76 1 70 31
M  V30 77 1 71 32
M  V30 78 1 72 33
M  V30 79 1 73 34
M  V30 80 1 74 40
M  V30 81 1 75 42
M  V30 END BOND
M  V30 END CTAB
M  END
>  <i_m_stars>  (1) 
0

>  <b_m_subgroup_collapsed>  (1) 
0

>  <s_m_subgroup_title>  (1) 
ref_structures->ref_str

>  <s_m_subgroupid>  (1) 
ref_structures->ref_str

$$$$
1650564_ligand
     RDKit          3D

  0  0  0  0  0  0  0  0  0  0999 V3000
M  V30 BEGIN CTAB
M  V30 COUNTS 72 77 0 0 1
M  V30 BEGIN ATOM
M  V30 1 C 16.766000 -0.801000 7.090000 0
M  V30 2 C 16.821000 -0.891000 8.486000 0
M  V30 3 C 18.079000 -0.867000 9.120000 0
M  V30 4 C 19.244000 -0.790000 8.354000 0
M  V30 5 C 19.183000 -0.751000 6.960000 0
M  V30 6 C 17.934000 -0.735000 6.338000 0
M  V30 7 C 22.365000 -0.290000 5.702000 0
M  V30 8 C 21.971000 -1.249000 4.776000 0
M  V30 9 C 20.675000 -1.597000 5.114000 0
M  V30 10 C 19.745000 -2.638000 4.525000 0
M  V30 11 C 18.241000 -1.003000 10.623000 0
M  V30 12 C 15.555000 -0.988000 9.234000 0
M  V30 13 C 15.042000 -2.205000 9.512000 0
M  V30 14 C 13.799000 -2.450000 10.360000 0
M  V30 15 C 13.540000 0.088000 10.360000 0
M  V30 16 C 14.990000 0.275000 9.871000 0
M  V30 17 C 12.174000 -1.229000 12.072000 0 CFG=1
M  V30 18 C 11.610000 -2.658000 12.261000 0
M  V30 19 C 12.437000 -0.531000 13.412000 0
M  V30 20 C 11.847000 0.688000 13.796000 0
M  V30 21 C 13.074000 0.744000 15.782000 0
M  V30 22 C 13.666000 -0.489000 15.511000 0
M  V30 23 C 13.343000 -1.115000 14.305000 0
M  V30 24 C 14.897000 -2.404000 16.616000 0
M  V30 25 C 13.943000 -3.405000 16.397000 0
M  V30 26 C 14.268000 -4.730000 16.707000 0
M  V30 27 C 15.559000 -5.030000 17.194000 0
M  V30 28 C 13.598000 -5.988000 16.675000 0
M  V30 29 C 16.532000 -4.048000 17.389000 0
M  V30 30 C 16.161000 -2.732000 17.109000 0
M  V30 31 C 10.816000 1.405000 12.939000 0
M  V30 32 F 15.573000 -0.791000 6.449000 0
M  V30 33 N 20.372000 -0.787000 6.197000 0
M  V30 34 N 21.407000 0.002000 6.546000 0
M  V30 35 N 13.477000 -1.196000 11.217000 0 CFG=1 CHG=1
M  V30 36 N 12.161000 1.320000 14.960000 0
M  V30 37 N 14.585000 -1.052000 16.407000 0
M  V30 38 N 15.557000 -6.394000 17.399000 0
M  V30 39 N 14.372000 -6.952000 17.100000 0
M  V30 40 H 20.206000 -0.826000 8.842000 0
M  V30 41 H 17.852000 -0.685000 5.267000 0
M  V30 42 H 23.339000 0.172000 5.752000 0
M  V30 43 H 22.566000 -1.666000 3.977000 0
M  V30 44 H 18.801000 -2.229000 4.175000 0
M  V30 45 H 20.184000 -3.114000 3.653000 0
M  V30 46 H 19.513000 -3.425000 5.243000 0
M  V30 47 H 18.568000 -0.063000 11.058000 0
M  V30 48 H 17.344000 -1.352000 11.131000 0
M  V30 49 H 19.025000 -1.730000 10.825000 0
M  V30 50 H 15.541000 -3.070000 9.095000 0
M  V30 51 H 13.954000 -3.274000 11.057000 0
M  V30 52 H 12.940000 -2.649000 9.717000 0
M  V30 53 H 12.838000 -0.051000 9.535000 0
M  V30 54 H 13.213000 0.925000 10.975000 0
M  V30 55 H 15.069000 1.114000 9.182000 0
M  V30 56 H 15.622000 0.542000 10.713000 0
M  V30 57 H 11.445000 -0.680000 11.475000 0
M  V30 58 H 11.343000 -3.121000 11.311000 0
M  V30 59 H 12.311000 -3.320000 12.770000 0
M  V30 60 H 10.696000 -2.639000 12.852000 0
M  V30 61 H 13.309000 1.286000 16.686000 0
M  V30 62 H 13.826000 -2.044000 14.039000 0
M  V30 63 H 12.954000 -3.163000 16.041000 0
M  V30 64 H 12.587000 -6.192000 16.357000 0
M  V30 65 H 17.514000 -4.285000 17.768000 0
M  V30 66 H 16.881000 -1.946000 17.286000 0
M  V30 67 H 10.456000 2.323000 13.406000 0
M  V30 68 H 11.245000 1.673000 11.974000 0
M  V30 69 H 9.952000 0.765000 12.764000 0
M  V30 70 H 14.232000 -1.116000 11.883000 0
M  V30 71 H 14.989000 -0.417000 17.082000 0
M  V30 72 H 16.326000 -6.962000 17.730000 0
M  V30 END ATOM
M  V30 BEGIN BOND
M  V30 1 2 2 1
M  V30 2 1 3 2
M  V30 3 2 4 3
M  V30 4 1 5 4
M  V30 5 1 6 1
M  V30 6 2 6 5
M  V30 7 1 8 7
M  V30 8 2 9 8
M  V30 9 1 10 9
M  V30 10 1 11 3
M  V30 11 1 12 2
M  V30 12 2 13 12
M  V30 13 1 14 13
M  V30 14 1 16 12
M  V30 15 1 16 15
M  V30 16 1 18 17
M  V30 17 1 19 17
M  V30 18 2 20 19
M  V30 19 1 22 21
M  V30 20 1 23 19
M  V30 21 2 23 22
M  V30 22 2 25 24
M  V30 23 1 26 25
M  V30 24 2 27 26
M  V30 25 1 28 26
M  V30 26 1 29 27
M  V30 27 1 30 24
M  V30 28 2 30 29
M  V30 29 1 31 20
M  V30 30 1 32 1
M  V30 31 1 33 5
M  V30 32 1 33 9
M  V30 33 2 34 7
M  V30 34 1 34 33
M  V30 35 1 35 14
M  V30 36 1 35 15
M  V30 37 1 35 17
M  V30 38 1 36 20
M  V30 39 2 36 21
M  V30 40 1 37 22
M  V30 41 1 37 24
M  V30 42 1 38 27
M  V30 43 2 39 28
M  V30 44 1 39 38
M  V30 45 1 40 4
M  V30 46 1 41 6
M  V30 47 1 42 7
M  V30 48 1 43 8
M  V30 49 1 44 10
M  V30 50 1 45 10
M  V30 51 1 46 10
M  V30 52 1 47 11
M  V30 53 1 48 11
M  V30 54 1 49 11
M  V30 55 1 50 13
M  V30 56 1 51 14
M  V30 57 1 52 14
M  V30 58 1 53 15
M  V30 59 1 54 15
M  V30 60 1 55 16
M  V30 61 1 56 16
M  V30 62 1 17 57 CFG=3
M  V30 63 1 58 18
M  V30 64 1 59 18
M  V30 65 1 60 18
M  V30 66 1 61 21
M  V30 67 1 62 23
M  V30 68 1 63 25
M  V30 69 1 64 28
M  V30 70 1 65 29
M  V30 71 1 66 30
M  V30 72 1 67 31
M  V30 73 1 68 31
M  V30 74 1 69 31
M  V30 75 1 35 70 CFG=1
M  V30 76 1 71 37
M  V30 77 1 72 38
M  V30 END BOND
M  V30 END CTAB
M  END
>  <i_m_stars>  (2) 
0

>  <b_m_subgroup_collapsed>  (2) 
0

>  <s_m_subgroup_title>  (2) 
ref_structures->ref_str

>  <s_m_subgroupid>  (2) 
ref_structures->ref_str

$$$$
1650610_ligand
     RDKit          3D

  0  0  0  0  0  0  0  0  0  0999 V3000
M  V30 BEGIN CTAB
M  V30 COUNTS 74 79 0 0 1
M  V30 BEGIN ATOM
M  V30 1 C 18.092000 -0.775000 9.097000 0
M  V30 2 C 16.884000 -0.859000 8.400000 0
M  V30 3 C 16.898000 -0.784000 7.001000 0
M  V30 4 C 18.104000 -0.638000 6.318000 0
M  V30 5 C 19.313000 -0.552000 7.018000 0
M  V30 6 C 19.294000 -0.626000 8.410000 0
M  V30 7 C 20.621000 -0.347000 6.305000 0
M  V30 8 C 20.413000 -2.597000 5.208000 0
M  V30 9 C 22.375000 -1.201000 4.816000 0
M  V30 10 C 15.633000 -1.053000 9.150000 0
M  V30 11 C 14.770000 -0.026000 9.281000 0
M  V30 12 C 13.427000 -0.111000 9.993000 0
M  V30 13 C 14.212000 -2.461000 10.689000 0
M  V30 14 C 15.233000 -2.470000 9.536000 0
M  V30 15 C 11.836000 -1.694000 11.301000 0 CFG=2
M  V30 16 C 10.501000 -1.252000 10.666000 0
M  V30 17 C 12.219000 -1.111000 12.672000 0
M  V30 18 C 12.454000 0.317000 14.419000 0
M  V30 19 C 13.001000 1.312000 16.391000 0
M  V30 20 C 13.635000 0.164000 16.863000 0
M  V30 21 C 13.671000 -0.995000 16.071000 0
M  V30 22 C 13.069000 -0.907000 14.792000 0
M  V30 23 C 12.889000 -1.782000 13.683000 0
M  V30 24 C 15.546000 -2.093000 17.112000 0
M  V30 25 C 16.181000 -3.095000 17.749000 0
M  V30 26 C 15.447000 -4.338000 17.888000 0
M  V30 27 C 14.212000 -4.456000 17.355000 0
M  V30 28 C 13.675000 -5.835000 17.657000 0
M  V30 29 C 14.922000 -6.543000 18.185000 0
M  V30 30 C 13.555000 -3.367000 16.630000 0
M  V30 31 C 11.198000 1.229000 12.438000 0
M  V30 32 F 18.106000 -0.855000 10.445000 0
M  V30 33 F 15.744000 -0.855000 6.297000 0
M  V30 34 N 21.079000 -1.321000 5.479000 0
M  V30 35 N 13.006000 -1.580000 10.278000 0 CFG=1 CHG=1
M  V30 36 N 11.947000 0.180000 13.133000 0
M  V30 37 N 12.395000 1.415000 15.184000 0
M  V30 38 N 14.269000 -2.178000 16.579000 0
M  V30 39 N 15.781000 -5.452000 18.606000 0
M  V30 40 O 21.244000 0.696000 6.516000 0
M  V30 41 O 12.434000 -3.547000 16.149000 0
M  V30 42 H 18.095000 -0.603000 5.240000 0
M  V30 43 H 20.223000 -0.594000 8.952000 0
M  V30 44 H 20.245000 -2.711000 4.136000 0
M  V30 45 H 21.044000 -3.419000 5.536000 0
M  V30 46 H 19.451000 -2.718000 5.701000 0
M  V30 47 H 23.053000 -1.972000 5.184000 0
M  V30 48 H 22.253000 -1.336000 3.741000 0
M  V30 49 H 22.862000 -0.236000 4.971000 0
M  V30 50 H 15.075000 0.939000 8.901000 0
M  V30 51 H 12.621000 0.347000 9.419000 0
M  V30 52 H 13.540000 0.387000 10.953000 0
M  V30 53 H 14.638000 -2.023000 11.593000 0
M  V30 54 H 13.841000 -3.465000 10.905000 0
M  V30 55 H 16.109000 -3.049000 9.821000 0
M  V30 56 H 14.804000 -2.970000 8.666000 0
M  V30 57 H 11.748000 -2.776000 11.412000 0
M  V30 58 H 10.238000 -1.903000 9.831000 0
M  V30 59 H 9.687000 -1.317000 11.387000 0
M  V30 60 H 10.518000 -0.239000 10.270000 0
M  V30 61 H 12.952000 2.197000 17.004000 0
M  V30 62 H 14.075000 0.170000 17.850000 0
M  V30 63 H 13.219000 -2.808000 13.613000 0
M  V30 64 H 16.017000 -1.134000 16.952000 0
M  V30 65 H 17.182000 -2.956000 18.124000 0
M  V30 66 H 13.283000 -6.343000 16.775000 0
M  V30 67 H 12.875000 -5.793000 18.398000 0
M  V30 68 H 15.413000 -7.120000 17.402000 0
M  V30 69 H 14.694000 -7.219000 19.010000 0
M  V30 70 H 11.353000 2.197000 12.917000 0
M  V30 71 H 11.536000 1.328000 11.410000 0
M  V30 72 H 10.135000 0.992000 12.460000 0
M  V30 73 H 12.676000 -1.966000 9.404000 0
M  V30 74 H 16.761000 -5.714000 18.609000 0
M  V30 END ATOM
M  V30 BEGIN BOND
M  V30 1 2 2 1
M  V30 2 1 3 2
M  V30 3 2 4 3
M  V30 4 1 5 4
M  V30 5 1 6 1
M  V30 6 2 6 5
M  V30 7 1 7 5
M  V30 8 1 10 2
M  V30 9 2 11 10
M  V30 10 1 12 11
M  V30 11 1 14 10
M  V30 12 1 14 13
M  V30 13 1 16 15
M  V30 14 1 17 15
M  V30 15 2 20 19
M  V30 16 1 21 20
M  V30 17 1 22 18
M  V30 18 2 22 21
M  V30 19 2 23 17
M  V30 20 1 23 22
M  V30 21 2 25 24
M  V30 22 1 26 25
M  V30 23 2 27 26
M  V30 24 1 28 27
M  V30 25 1 29 28
M  V30 26 1 30 27
M  V30 27 1 32 1
M  V30 28 1 33 3
M  V30 29 1 34 7
M  V30 30 1 34 8
M  V30 31 1 34 9
M  V30 32 1 35 12
M  V30 33 1 35 13
M  V30 34 1 35 15
M  V30 35 1 36 17
M  V30 36 1 36 18
M  V30 37 1 36 31
M  V30 38 2 37 18
M  V30 39 1 37 19
M  V30 40 1 38 21
M  V30 41 1 38 24
M  V30 42 1 38 30
M  V30 43 1 39 26
M  V30 44 1 39 29
M  V30 45 2 40 7
M  V30 46 2 41 30
M  V30 47 1 42 4
M  V30 48 1 43 6
M  V30 49 1 44 8
M  V30 50 1 45 8
M  V30 51 1 46 8
M  V30 52 1 47 9
M  V30 53 1 48 9
M  V30 54 1 49 9
M  V30 55 1 50 11
M  V30 56 1 51 12
M  V30 57 1 52 12
M  V30 58 1 53 13
M  V30 59 1 54 13
M  V30 60 1 55 14
M  V30 61 1 56 14
M  V30 62 1 15 57 CFG=1
M  V30 63 1 58 16
M  V30 64 1 59 16
M  V30 65 1 60 16
M  V30 66 1 61 19
M  V30 67 1 62 20
M  V30 68 1 63 23
M  V30 69 1 64 24
M  V30 70 1 65 25
M  V30 71 1 66 28
M  V30 72 1 67 28
M  V30 73 1 68 29
M  V30 74 1 69 29
M  V30 75 1 70 31
M  V30 76 1 71 31
M  V30 77 1 72 31
M  V30 78 1 35 73 CFG=3
M  V30 79 1 74 39
M  V30 END BOND
M  V30 END CTAB
M  END
>  <i_m_stars>  (3) 
0

>  <b_m_subgroup_collapsed>  (3) 
0

>  <s_m_subgroup_title>  (3) 
ref_structures->ref_str

>  <s_m_subgroupid>  (3) 
ref_structures->ref_str

$$$$
1650495_ligand
     RDKit          3D

  0  0  0  0  0  0  0  0  0  0999 V3000
M  V30 BEGIN CTAB
M  V30 COUNTS 76 80 0 0 1
M  V30 BEGIN ATOM
M  V30 1 C 17.760000 -0.680000 10.276000 0
M  V30 2 C 17.882000 -0.707000 8.763000 0
M  V30 3 C 19.142000 -0.524000 8.189000 0
M  V30 4 C 19.313000 -0.565000 6.803000 0
M  V30 5 C 20.687000 -0.361000 6.212000 0
M  V30 6 C 20.561000 -2.576000 5.035000 0
M  V30 7 C 22.476000 -1.107000 4.690000 0
M  V30 8 C 18.190000 -0.768000 5.993000 0
M  V30 9 C 16.924000 -0.932000 6.554000 0
M  V30 10 C 16.756000 -0.909000 7.944000 0
M  V30 11 C 15.408000 -1.098000 8.520000 0
M  V30 12 C 15.145000 -2.224000 9.221000 0
M  V30 13 C 13.879000 -2.471000 10.028000 0
M  V30 14 C 11.812000 -1.230000 11.101000 0 CFG=1
M  V30 15 C 11.113000 -2.602000 10.965000 0
M  V30 16 C 12.171000 -0.878000 12.540000 0
M  V30 17 C 11.155000 1.446000 12.460000 0
M  V30 18 C 12.383000 0.394000 14.400000 0
M  V30 19 C 12.956000 1.247000 16.428000 0
M  V30 20 C 13.604000 0.073000 16.804000 0
M  V30 21 C 13.654000 -1.022000 15.925000 0
M  V30 22 C 13.027000 -0.847000 14.664000 0
M  V30 23 C 12.863000 -1.629000 13.478000 0
M  V30 24 C 13.712000 -3.451000 16.163000 0
M  V30 25 C 14.506000 -4.597000 16.597000 0
M  V30 26 C 15.697000 -4.502000 17.242000 0
M  V30 27 C 16.100000 -7.001000 17.454000 0
M  V30 28 C 16.242000 -3.169000 17.437000 0
M  V30 29 C 15.551000 -2.122000 16.948000 0
M  V30 30 C 13.048000 -0.267000 9.026000 0
M  V30 31 C 14.488000 0.115000 8.607000 0
M  V30 32 F 15.861000 -1.115000 5.737000 0
M  V30 33 N 21.180000 -1.287000 5.347000 0
M  V30 34 N 13.148000 -1.129000 10.306000 0 CFG=2 CHG=1
M  V30 35 N 11.841000 0.339000 13.123000 0
M  V30 36 N 12.326000 1.432000 15.243000 0
M  V30 37 N 14.327000 -2.218000 16.305000 0
M  V30 38 N 16.412000 -5.595000 17.662000 0
M  V30 39 O 21.318000 0.649000 6.533000 0
M  V30 40 O 12.561000 -3.630000 15.761000 0
M  V30 41 H 16.872000 -0.121000 10.564000 0
M  V30 42 H 17.656000 -1.693000 10.664000 0
M  V30 43 H 18.612000 -0.193000 10.748000 0
M  V30 44 H 20.000000 -0.378000 8.825000 0
M  V30 45 H 21.260000 -3.375000 5.266000 0
M  V30 46 H 19.651000 -2.789000 5.593000 0
M  V30 47 H 20.325000 -2.633000 3.972000 0
M  V30 48 H 22.375000 -1.238000 3.613000 0
M  V30 49 H 22.913000 -0.122000 4.857000 0
M  V30 50 H 23.189000 -1.848000 5.053000 0
M  V30 51 H 18.293000 -0.805000 4.919000 0
M  V30 52 H 15.888000 -3.007000 9.213000 0
M  V30 53 H 14.097000 -2.909000 11.001000 0
M  V30 54 H 13.213000 -3.122000 9.461000 0
M  V30 55 H 11.156000 -0.489000 10.647000 0
M  V30 56 H 10.902000 -2.841000 9.922000 0
M  V30 57 H 11.702000 -3.417000 11.388000 0
M  V30 58 H 10.156000 -2.596000 11.490000 0
M  V30 59 H 10.797000 2.171000 13.192000 0
M  V30 60 H 11.846000 1.937000 11.774000 0
M  V30 61 H 10.289000 1.078000 11.911000 0
M  V30 62 H 12.930000 2.091000 17.102000 0
M  V30 63 H 14.067000 0.023000 17.779000 0
M  V30 64 H 13.235000 -2.627000 13.304000 0
M  V30 65 H 14.084000 -5.572000 16.404000 0
M  V30 66 H 16.754000 -7.622000 18.066000 0
M  V30 67 H 15.068000 -7.222000 17.730000 0
M  V30 68 H 16.254000 -7.276000 16.413000 0
M  V30 69 H 17.190000 -3.025000 17.932000 0
M  V30 70 H 15.930000 -1.113000 17.025000 0
M  V30 71 H 12.534000 -0.874000 8.279000 0
M  V30 72 H 12.452000 0.619000 9.251000 0
M  V30 73 H 14.503000 0.673000 7.669000 0
M  V30 74 H 14.905000 0.799000 9.347000 0
M  V30 75 H 13.762000 -0.603000 10.912000 0
M  V30 76 H 17.405000 -5.460000 17.818000 0
M  V30 END ATOM
M  V30 BEGIN BOND
M  V30 1 1 2 1
M  V30 2 2 3 2
M  V30 3 1 4 3
M  V30 4 1 5 4
M  V30 5 2 8 4
M  V30 6 1 9 8
M  V30 7 1 10 2
M  V30 8 2 10 9
M  V30 9 1 11 10
M  V30 10 2 12 11
M  V30 11 1 13 12
M  V30 12 1 15 14
M  V30 13 1 16 14
M  V30 14 2 20 19
M  V30 15 1 21 20
M  V30 16 1 22 18
M  V30 17 2 22 21
M  V30 18 2 23 16
M  V30 19 1 23 22
M  V30 20 1 25 24
M  V30 21 2 26 25
M  V30 22 1 28 26
M  V30 23 2 29 28
M  V30 24 1 31 11
M  V30 25 1 31 30
M  V30 26 1 32 9
M  V30 27 1 33 5
M  V30 28 1 33 6
M  V30 29 1 33 7
M  V30 30 1 34 13
M  V30 31 1 34 14
M  V30 32 1 34 30
M  V30 33 1 35 16
M  V30 34 1 35 17
M  V30 35 1 35 18
M  V30 36 2 36 18
M  V30 37 1 36 19
M  V30 38 1 37 21
M  V30 39 1 37 24
M  V30 40 1 37 29
M  V30 41 1 38 26
M  V30 42 1 38 27
M  V30 43 2 39 5
M  V30 44 2 40 24
M  V30 45 1 41 1
M  V30 46 1 42 1
M  V30 47 1 43 1
M  V30 48 1 44 3
M  V30 49 1 45 6
M  V30 50 1 46 6
M  V30 51 1 47 6
M  V30 52 1 48 7
M  V30 53 1 49 7
M  V30 54 1 50 7
M  V30 55 1 51 8
M  V30 56 1 52 12
M  V30 57 1 53 13
M  V30 58 1 54 13
M  V30 59 1 14 55 CFG=3
M  V30 60 1 56 15
M  V30 61 1 57 15
M  V30 62 1 58 15
M  V30 63 1 59 17
M  V30 64 1 60 17
M  V30 65 1 61 17
M  V30 66 1 62 19
M  V30 67 1 63 20
M  V30 68 1 64 23
M  V30 69 1 65 25
M  V30 70 1 66 27
M  V30 71 1 67 27
M  V30 72 1 68 27
M  V30 73 1 69 28
M  V30 74 1 70 29
M  V30 75 1 71 30
M  V30 76 1 72 30
M  V30 77 1 73 31
M  V30 78 1 74 31
M  V30 79 1 34 75 CFG=1
M  V30 80 1 76 38
M  V30 END BOND
M  V30 END CTAB
M  END
>  <i_m_stars>  (4) 
0

>  <b_m_subgroup_collapsed>  (4) 
0

>  <s_m_subgroup_title>  (4) 
ref_structures->ref_str

>  <s_m_subgroupid>  (4) 
ref_structures->ref_str

$$$$
1669872_ligand
     RDKit          3D

  0  0  0  0  0  0  0  0  0  0999 V3000
M  V30 BEGIN CTAB
M  V30 COUNTS 87 93 0 0 1
M  V30 BEGIN ATOM
M  V30 1 C 13.597000 -0.126000 10.749000 0
M  V30 2 C 13.688000 -2.535000 10.604000 0
M  V30 3 C 15.113000 -2.513000 9.985000 0
M  V30 4 C 15.471000 -1.141000 9.413000 0
M  V30 5 C 14.807000 -0.049000 9.839000 0
M  V30 6 C 16.698000 -0.963000 8.609000 0
M  V30 7 C 17.928000 -0.818000 9.262000 0
M  V30 8 C 19.105000 -0.683000 8.531000 0
M  V30 9 C 19.091000 -0.662000 7.135000 0
M  V30 10 C 17.864000 -0.803000 6.479000 0
M  V30 11 C 16.674000 -0.973000 7.202000 0
M  V30 12 C 15.375000 -1.182000 6.437000 0
M  V30 13 C 20.393000 -0.517000 6.373000 0
M  V30 14 C 12.286000 -1.442000 12.311000 0
M  V30 15 C 12.440000 -0.600000 13.579000 0
M  V30 16 C 13.220000 -1.102000 14.631000 0
M  V30 17 C 13.428000 -0.346000 15.787000 0
M  V30 18 C 12.864000 0.926000 15.840000 0
M  V30 19 C 11.876000 0.676000 13.742000 0
M  V30 20 C 10.966000 1.321000 12.709000 0
M  V30 21 C 14.696000 -2.103000 17.093000 0
M  V30 22 C 14.431000 -4.489000 17.335000 0
M  V30 23 C 15.793000 -4.577000 17.692000 0
M  V30 24 C 16.620000 -3.460000 17.766000 0
M  V30 25 C 16.038000 -2.224000 17.463000 0
M  V30 26 C 13.984000 -5.841000 17.339000 0
M  V30 27 C 13.870000 -3.236000 17.053000 0
M  V30 28 C 20.169000 -2.884000 5.614000 0
M  V30 29 C 20.037000 -3.296000 4.137000 0
M  V30 30 C 22.042000 -2.018000 3.571000 0
M  V30 31 C 22.184000 -1.545000 5.030000 0
M  V30 32 C 21.482000 -4.020000 2.223000 0
M  V30 33 C 20.455000 -4.902000 0.314000 0
M  V30 34 C 21.662000 -5.409000 -0.155000 0
M  V30 35 C 22.814000 -5.200000 0.600000 0
M  V30 36 C 22.750000 -4.492000 1.814000 0
M  V30 37 C 25.123000 -4.803000 2.237000 0
M  V30 38 F 17.994000 -0.812000 10.614000 0
M  V30 39 F 12.546000 -3.158000 16.760000 0
M  V30 40 N 13.506000 -1.382000 11.501000 0
M  V30 41 N 20.871000 -1.593000 5.699000 0
M  V30 42 N 12.099000 1.441000 14.841000 0
M  V30 43 N 14.193000 -0.813000 16.869000 0
M  V30 44 N 14.916000 -6.665000 17.736000 0
M  V30 45 N 16.026000 -5.919000 17.905000 0
M  V30 46 N 21.301000 -3.273000 3.386000 0
M  V30 47 N 20.357000 -4.213000 1.473000 0
M  V30 48 O 20.992000 0.566000 6.417000 0
M  V30 49 O 23.858000 -4.272000 2.620000 0
M  V30 50 H 12.716000 0.063000 10.133000 0
M  V30 51 H 13.678000 0.700000 11.454000 0
M  V30 52 H 13.596000 -3.462000 11.173000 0
M  V30 53 H 12.906000 -2.588000 9.844000 0
M  V30 54 H 15.241000 -3.297000 9.237000 0
M  V30 55 H 15.840000 -2.760000 10.760000 0
M  V30 56 H 15.127000 0.916000 9.492000 0
M  V30 57 H 20.035000 -0.626000 9.065000 0
M  V30 58 H 17.832000 -0.816000 5.397000 0
M  V30 59 H 15.538000 -1.281000 5.364000 0
M  V30 60 H 14.889000 -2.098000 6.775000 0
M  V30 61 H 14.684000 -0.359000 6.615000 0
M  V30 62 H 11.398000 -1.161000 11.743000 0
M  V30 63 H 12.106000 -2.470000 12.629000 0
M  V30 64 H 13.686000 -2.068000 14.524000 0
M  V30 65 H 12.998000 1.555000 16.706000 0
M  V30 66 H 10.576000 2.275000 13.065000 0
M  V30 67 H 11.504000 1.512000 11.784000 0
M  V30 68 H 10.111000 0.681000 12.488000 0
M  V30 69 H 17.663000 -3.542000 18.031000 0
M  V30 70 H 16.654000 -1.339000 17.491000 0
M  V30 71 H 13.019000 -6.195000 17.021000 0
M  V30 72 H 20.753000 -3.637000 6.137000 0
M  V30 73 H 19.177000 -2.898000 6.060000 0
M  V30 74 H 19.372000 -2.583000 3.647000 0
M  V30 75 H 19.572000 -4.281000 4.067000 0
M  V30 76 H 23.024000 -2.066000 3.102000 0
M  V30 77 H 21.464000 -1.263000 3.037000 0
M  V30 78 H 22.657000 -0.563000 5.050000 0
M  V30 79 H 22.863000 -2.229000 5.537000 0
M  V30 80 H 19.540000 -5.035000 -0.246000 0
M  V30 81 H 21.701000 -5.949000 -1.088000 0
M  V30 82 H 23.747000 -5.594000 0.229000 0
M  V30 83 H 25.846000 -4.652000 3.038000 0
M  V30 84 H 25.078000 -5.876000 2.047000 0
M  V30 85 H 25.505000 -4.304000 1.348000 0
M  V30 86 H 14.417000 -0.127000 17.576000 0
M  V30 87 H 16.939000 -6.344000 18.098000 0
M  V30 END ATOM
M  V30 BEGIN BOND
M  V30 1 1 3 2
M  V30 2 1 4 3
M  V30 3 1 5 1
M  V30 4 2 5 4
M  V30 5 1 6 4
M  V30 6 2 7 6
M  V30 7 1 8 7
M  V30 8 2 9 8
M  V30 9 1 10 9
M  V30 10 1 11 6
M  V30 11 2 11 10
M  V30 12 1 12 11
M  V30 13 1 13 9
M  V30 14 1 15 14
M  V30 15 2 16 15
M  V30 16 1 17 16
M  V30 17 2 18 17
M  V30 18 1 19 15
M  V30 19 1 20 19
M  V30 20 1 23 22
M  V30 21 2 24 23
M  V30 22 2 25 21
M  V30 23 1 25 24
M  V30 24 1 26 22
M  V30 25 1 27 21
M  V30 26 2 27 22
M  V30 27 1 29 28
M  V30 28 1 31 30
M  V30 29 2 34 33
M  V30 30 1 35 34
M  V30 31 1 36 32
M  V30 32 2 36 35
M  V30 33 1 38 7
M  V30 34 1 39 27
M  V30 35 1 40 1
M  V30 36 1 40 2
M  V30 37 1 40 14
M  V30 38 1 41 13
M  V30 39 1 41 28
M  V30 40 1 41 31
M  V30 41 1 42 18
M  V30 42 2 42 19
M  V30 43 1 43 17
M  V30 44 1 43 21
M  V30 45 2 44 26
M  V30 46 1 45 23
M  V30 47 1 45 44
M  V30 48 1 46 29
M  V30 49 1 46 30
M  V30 50 1 46 32
M  V30 51 2 47 32
M  V30 52 1 47 33
M  V30 53 2 48 13
M  V30 54 1 49 36
M  V30 55 1 49 37
M  V30 56 1 50 1
M  V30 57 1 51 1
M  V30 58 1 52 2
M  V30 59 1 53 2
M  V30 60 1 54 3
M  V30 61 1 55 3
M  V30 62 1 56 5
M  V30 63 1 57 8
M  V30 64 1 58 10
M  V30 65 1 59 12
M  V30 66 1 60 12
M  V30 67 1 61 12
M  V30 68 1 62 14
M  V30 69 1 63 14
M  V30 70 1 64 16
M  V30 71 1 65 18
M  V30 72 1 66 20
M  V30 73 1 67 20
M  V30 74 1 68 20
M  V30 75 1 69 24
M  V30 76 1 70 25
M  V30 77 1 71 26
M  V30 78 1 72 28
M  V30 79 1 73 28
M  V30 80 1 74 29
M  V30 81 1 75 29
M  V30 82 1 76 30
M  V30 83 1 77 30
M  V30 84 1 78 31
M  V30 85 1 79 31
M  V30 86 1 80 33
M  V30 87 1 81 34
M  V30 88 1 82 35
M  V30 89 1 83 37
M  V30 90 1 84 37
M  V30 91 1 85 37
M  V30 92 1 86 43
M  V30 93 1 87 45
M  V30 END BOND
M  V30 END CTAB
M  END
>  <i_m_stars>  (5) 
0

>  <b_m_subgroup_collapsed>  (5) 
0

>  <s_m_subgroup_title>  (5) 
ref_structures->ref_str

>  <s_m_subgroupid>  (5) 
ref_structures->ref_str

$$$$
GS-1695667_6nM
     RDKit          3D

  0  0  0  0  0  0  0  0  0  0999 V3000
M  V30 BEGIN CTAB
M  V30 COUNTS 78 83 0 0 1
M  V30 BEGIN ATOM
M  V30 1 C 13.839658 0.084271 11.150078 0
M  V30 2 N 13.370017 -1.282410 11.414300 0
M  V30 3 C 14.485091 -2.214521 11.602193 0
M  V30 4 C 15.307170 -2.303031 10.306245 0
M  V30 5 C 15.731031 -0.931655 9.814286 0
M  V30 6 C 15.028891 0.147711 10.202753 0
M  V30 7 C 16.885236 -0.802312 8.912877 0
M  V30 8 C 18.164545 -1.021639 9.459753 0
M  V30 9 C 19.306904 -0.945596 8.644412 0
M  V30 10 C 19.181536 -0.683231 7.265292 0
M  V30 11 C 17.898601 -0.449362 6.720744 0
M  V30 12 C 16.745437 -0.511138 7.533826 0
M  V30 13 C 15.380355 -0.278679 6.909330 0
M  V30 14 F 18.294858 -1.314476 10.774684 0
M  V30 15 C 20.417127 -0.605972 6.415447 0
M  V30 16 N 20.516331 -1.417742 5.343313 0
M  V30 17 O 21.313369 0.178364 6.726469 0
M  V30 18 C 12.314204 -1.320532 12.436877 0 CFG=2
M  V30 19 C 12.752196 -0.933965 13.856910 0
M  V30 20 C 13.508800 -1.833292 14.643026 0
M  V30 21 C 13.941618 -1.460886 15.931055 0
M  V30 22 C 13.576553 -0.178998 16.388089 0
M  V30 23 N 12.824820 0.682660 15.674375 0
M  V30 24 C 12.425395 0.319359 14.437422 0
M  V30 25 C 11.596257 1.365521 13.712463 0
M  V30 26 C 11.564466 -2.665627 12.393907 0
M  V30 27 C 21.735686 -1.439126 4.489105 0
M  V30 28 C 21.495844 -2.631794 3.642909 0
M  V30 29 C 20.325971 -3.198885 3.919091 0
M  V30 30 C 19.573292 -2.507127 4.975190 0
M  V30 31 C 22.059133 -3.433061 2.616098 0
M  V30 32 N 21.230926 -4.433916 2.300612 0
M  V30 33 N 20.145532 -4.293108 3.111877 0
M  V30 34 C 19.036980 -5.217772 3.030091 0
M  V30 35 C 14.771272 -2.358199 16.747976 0
M  V30 36 C 14.300468 -3.623478 17.162154 0
M  V30 37 C 15.116564 -4.491915 17.926015 0
M  V30 38 C 16.410196 -4.068779 18.305731 0
M  V30 39 C 16.885590 -2.813407 17.891777 0
M  V30 40 C 16.074371 -1.970176 17.115515 0
M  V30 41 C 14.596228 -5.838216 18.332973 0
M  V30 42 O 13.391854 -6.034283 18.488752 0
M  V30 43 N 15.502244 -6.808568 18.473015 0
M  V30 44 H 14.119820 0.564530 12.090415 0
M  V30 45 H 13.017790 0.677537 10.743459 0
M  V30 46 H 14.101379 -3.197514 11.882997 0
M  V30 47 H 15.102606 -1.877414 12.438360 0
M  V30 48 H 14.731638 -2.796158 9.521659 0
M  V30 49 H 16.188297 -2.923277 10.475388 0
M  V30 50 H 15.327995 1.106854 9.801158 0
M  V30 51 H 20.287388 -1.088725 9.075165 0
M  V30 52 H 17.794121 -0.219803 5.668256 0
M  V30 53 H 15.436788 -0.276461 5.820711 0
M  V30 54 H 14.682256 -1.063429 7.202312 0
M  V30 55 H 14.975299 0.681419 7.229267 0
M  V30 56 H 11.517732 -0.628741 12.162731 0
M  V30 57 H 13.762963 -2.814418 14.265239 0
M  V30 58 H 13.897956 0.170989 17.361865 0
M  V30 59 H 10.611016 0.970294 13.466461 0
M  V30 60 H 11.450957 2.256065 14.326141 0
M  V30 61 H 12.087885 1.678697 12.792235 0
M  V30 62 H 10.682956 -2.631989 13.030357 0
M  V30 63 H 11.228722 -2.891454 11.381154 0
M  V30 64 H 12.170137 -3.504360 12.733351 0
M  V30 65 H 22.646966 -1.516488 5.086217 0
M  V30 66 H 21.806222 -0.529079 3.889529 0
M  V30 67 H 19.345887 -3.150551 5.827666 0
M  V30 68 H 18.631105 -2.103456 4.599307 0
M  V30 69 H 23.019662 -3.277094 2.139581 0
M  V30 70 H 18.350247 -5.052638 3.860629 0
M  V30 71 H 18.503457 -5.065920 2.091482 0
M  V30 72 H 19.406167 -6.242815 3.072655 0
M  V30 73 H 13.301394 -3.942657 16.896048 0
M  V30 74 H 17.032720 -4.711377 18.914307 0
M  V30 75 H 17.880595 -2.492727 18.171001 0
M  V30 76 H 16.462698 -1.010980 16.799320 0
M  V30 77 H 16.494187 -6.621938 18.326500 0
M  V30 78 H 15.194434 -7.738581 18.711852 0
M  V30 END ATOM
M  V30 BEGIN BOND
M  V30 1 1 2 1
M  V30 2 1 3 2
M  V30 3 1 4 3
M  V30 4 1 5 4
M  V30 5 1 6 1
M  V30 6 2 6 5
M  V30 7 1 7 5
M  V30 8 2 8 7
M  V30 9 1 9 8
M  V30 10 2 10 9
M  V30 11 1 11 10
M  V30 12 1 12 7
M  V30 13 2 12 11
M  V30 14 1 13 12
M  V30 15 1 14 8
M  V30 16 1 15 10
M  V30 17 1 16 15
M  V30 18 2 17 15
M  V30 19 1 18 2
M  V30 20 1 19 18
M  V30 21 2 20 19
M  V30 22 1 21 20
M  V30 23 2 22 21
M  V30 24 1 23 22
M  V30 25 1 24 19
M  V30 26 2 24 23
M  V30 27 1 25 24
M  V30 28 1 26 18
M  V30 29 1 27 16
M  V30 30 1 28 27
M  V30 31 2 29 28
M  V30 32 1 30 16
M  V30 33 1 30 29
M  V30 34 1 31 28
M  V30 35 2 32 31
M  V30 36 1 33 29
M  V30 37 1 33 32
M  V30 38 1 34 33
M  V30 39 1 35 21
M  V30 40 2 36 35
M  V30 41 1 37 36
M  V30 42 2 38 37
M  V30 43 1 39 38
M  V30 44 1 40 35
M  V30 45 2 40 39
M  V30 46 1 41 37
M  V30 47 2 42 41
M  V30 48 1 43 41
M  V30 49 1 44 1
M  V30 50 1 45 1
M  V30 51 1 46 3
M  V30 52 1 47 3
M  V30 53 1 48 4
M  V30 54 1 49 4
M  V30 55 1 50 6
M  V30 56 1 51 9
M  V30 57 1 52 11
M  V30 58 1 53 13
M  V30 59 1 54 13
M  V30 60 1 55 13
M  V30 61 1 18 56 CFG=3
M  V30 62 1 57 20
M  V30 63 1 58 22
M  V30 64 1 59 25
M  V30 65 1 60 25
M  V30 66 1 61 25
M  V30 67 1 62 26
M  V30 68 1 63 26
M  V30 69 1 64 26
M  V30 70 1 65 27
M  V30 71 1 66 27
M  V30 72 1 67 30
M  V30 73 1 68 30
M  V30 74 1 69 31
M  V30 75 1 70 34
M  V30 76 1 71 34
M  V30 77 1 72 34
M  V30 78 1 73 36
M  V30 79 1 74 38
M  V30 80 1 75 39
M  V30 81 1 76 40
M  V30 82 1 77 43
M  V30 83 1 78 43
M  V30 END BOND
M  V30 END CTAB
M  END
>  <b_m_subgroup_collapsed>  (6) 
0

>  <s_m_subgroup_title>  (6) 
ref_structures->Week_03202026

>  <s_m_subgroupid>  (6) 
ref_structures->Week_03202026

$$$$
